LAMMPS (19 Sep 2019)
echo both

include		in.temp
variable	temperature equal 300.0
variable	temperature2 equal 450.0

variable	tempDamp equal 100.0
include		in.pressure
variable        pressure equal 1.
variable        pressureDamp equal 1000.0 # This is 1 ps
include		in.seed
variable	seed equal 745821
units		real
atom_style	full
include		in.box
read_data       ice.data
  orthogonal box = (0.249472 0.548007 0.169594) to (9.23397 8.32881 7.50539)
  reading atoms ...
  48 atoms
  scanning bonds ...
  scanning angles ...
  reading bonds ...
  32 bonds
  reading angles ...
  16 angles
include 	in.setup
variable	out_freq equal 500
variable	out_freq2 equal 500

timestep	2.0

neigh_modify    delay 10 every 1

include		in.tip4p
# This is TIP4P/Ice

# create groups ###
group ox type 2
16 atoms in group ox
group hy type 1
32 atoms in group hy

# set charges - beside manually ###
set group ox charge -1.1794
  16 settings made for charge
set group hy charge 0.5897
  32 settings made for charge

# ### TIP3P Potential Parameters ###
pair_style lj/cut/tip4p/long 2 1 1 1 0.1577 8.5
pair_coeff 1 1*2 0.000 0.000
pair_coeff 2 2 0.21084 3.1668
bond_style  harmonic
bond_coeff  1 450 0.9572
angle_style harmonic
angle_coeff 1 55 104.52
kspace_style pppm/tip4p 1.0e-4 #final npt relaxation
pair_modify tail yes

thermo          500
thermo_style 	custom step temp pe etotal epair evdwl ecoul ebond eangle elong etail press lx ly lz vol

restart 	500 restart.lmp restart2.lmp

fix 		1 all shake 1e-6 200 0 b 1 a 1
  find clusters CPU = 6.73379e-05 secs
fix             2 all nph iso 1 1 1000
fix             3 all temp/csvr 450 450 100 745821

run             200000
PPPM initialization ...
  extracting TIP4P info from pair style
  G vector (1/distance) = 0.343339
  grid = 8 8 6
  stencil order = 5
  estimated absolute RMS force accuracy = 0.0137127
  estimated relative force accuracy = 4.12952e-05
  3d grid and FFT values/proc = 1573 128
  update every 1 steps, delay 10 steps, check yes
Step Temp PotEng TotEng E_pair E_vdwl E_coul E_bond E_angle E_long E_tail Press Lx Ly Lz Volume
0            0   -262.98376   -262.98376   -262.98376    67.247631    1816.9251            0            0   -2147.1565   -1.4468571    -354.4856       8.9845       7.7808       7.3358    512.82082
Averages over the last 201 of 401 rows, steps 100000 to 200000:
Temp PotEng TotEng E_pair E_vdwl E_coul E_bond E_angle E_long E_tail Press Lx Ly Lz Volume
453.999 -175.073 -133.122 -175.073 23.4887 1947.05 0 0 -2145.61 -1.45513 -135.331 8.97627 7.77368 7.32908 512.175
Loop time of 41.5726 on 4 procs for 200000 steps with 48 atoms

unfix		1
unfix		2
unfix		3

fix 		1 all shake 1e-6 200 0 b 1 a 1
  find clusters CPU = 6.8635e-05 secs
fix             2 all nph iso 1 1 1000
fix             3 all temp/csvr 450 300 100 745821

run             100000
PPPM initialization ...
  extracting TIP4P info from pair style
  G vector (1/distance) = 0.340903
  grid = 8 8 6
  stencil order = 5
  estimated absolute RMS force accuracy = 0.0148616
  estimated relative force accuracy = 4.47554e-05
  3d grid and FFT values/proc = 1573 128
Step Temp PotEng TotEng E_pair E_vdwl E_coul E_bond E_angle E_long E_tail Press Lx Ly Lz Volume
200000    500.21248   -164.42562   -118.20343   -164.42562    14.377209    1952.2827            0            0   -2131.0856   -1.3367488   -3837.6041    9.2247059    7.9888243    7.5319269    555.06199
Averages over the last 101 of 201 rows, steps 250000 to 300000:
Temp PotEng TotEng E_pair E_vdwl E_coul E_bond E_angle E_long E_tail Press Lx Ly Lz Volume
347.406 -198.537 -166.435 -198.537 31.4457 1900.98 0 0 -2130.96 -1.53372 -328.898 8.81767 7.63633 7.19959 485.289
Loop time of 21.1285 on 4 procs for 100000 steps with 48 atoms

unfix		1
unfix		2
unfix		3

include 	in.dump
dump            myDump all atom 500 dump.water
dump            myDump2 all dcd 500 dump.dcd

fix 		1 all shake 1e-6 200 0 b 1 a 1
  find clusters CPU = 5.45071e-05 secs
fix             2 all nph iso 1 1 1000
fix             3 all temp/csvr 300 300 100 745821

run             500000
PPPM initialization ...
  extracting TIP4P info from pair style
  G vector (1/distance) = 0.344529
  grid = 8 8 6
  stencil order = 5
  estimated absolute RMS force accuracy = 0.0131801
  estimated relative force accuracy = 3.96916e-05
  3d grid and FFT values/proc = 1573 128
Step Temp PotEng TotEng E_pair E_vdwl E_coul E_bond E_angle E_long E_tail Press Lx Ly Lz Volume
300000    370.59118   -210.66097   -176.41646   -210.66097    41.754899    1901.9082            0            0   -2154.3241   -1.5044969      2249.48    8.8682658    7.6801383    7.2408953    493.17382
Averages over the last 501 of 1001 rows, steps 550000 to 800000:
Temp PotEng TotEng E_pair E_vdwl E_coul E_bond E_angle E_long E_tail Press Lx Ly Lz Volume
298.075 -230.185 -202.642 -230.185 52.3693 1871.52 0 0 -2154.08 -1.39209 24.5654 9.1026 7.88308 7.43223 533.469
Loop time of 100.585 on 4 procs for 500000 steps with 48 atoms

unfix		1
unfix		2
unfix		3

write_data	data.final
PPPM initialization ...
  extracting TIP4P info from pair style
  G vector (1/distance) = 0.3414
  grid = 8 8 6
  stencil order = 5
  estimated absolute RMS force accuracy = 0.014619
  estimated relative force accuracy = 4.40248e-05
  3d grid and FFT values/proc = 1573 128
