LAMMPS (19 Sep 2019)
echo both

include		in.temp
variable	temperature equal 300.0

variable	tempDamp equal 100.0
include		in.pressure
variable        pressure equal 1.
variable        pressureDamp equal 1000.0 # This is 1 ps
include		in.seed
variable	seed equal 745821
units		real
atom_style	full
include		in.box
read_data       ice.data
  orthogonal box = (-1.11969 1.5e-05 2.15224) to (12.3503 15.5616 16.8239)
  reading atoms ...
  288 atoms
  scanning bonds ...
  scanning angles ...
  reading bonds ...
  192 bonds
  reading angles ...
  96 angles
include 	in.setup
variable	out_freq equal 500
variable	out_freq2 equal 500

timestep	2.0

neigh_modify    delay 10 every 1

include		in.tip4p
# This is TIP4P/Ice

# create groups ###
group ox type 2
96 atoms in group ox
group hy type 1
192 atoms in group hy

# set charges - beside manually ###
set group ox charge -1.1794
  96 settings made for charge
set group hy charge 0.5897
  192 settings made for charge

# ### TIP3P Potential Parameters ###
pair_style lj/cut/tip4p/long 2 1 1 1 0.1577 8.5
pair_coeff 1 1*2 0.000 0.000
pair_coeff 2 2 0.21084 3.1668
bond_style  harmonic
bond_coeff  1 450 0.9572
angle_style harmonic
angle_coeff 1 55 104.52
kspace_style pppm/tip4p 1.0e-4 #final npt relaxation
pair_modify tail yes

thermo          500
thermo_style 	custom step temp pe etotal epair evdwl ecoul ebond eangle elong etail press lx ly lz vol

restart 	500 restart.lmp restart2.lmp

include 	in.dump
dump            myDump all atom 500 dump.water
dump            myDump2 all dcd 500 dump.dcd

fix 		1 all shake 1e-6 200 0 b 1 a 1
  find clusters CPU = 5.898e-05 secs
fix             2 all nph aniso 1 1 1000
fix             3 all temp/csvr 300 300 100 745821
velocity 	all create 300 745821 dist gaussian

run             500000
PPPM initialization ...
  extracting TIP4P info from pair style
  G vector (1/distance) = 0.332588
  grid = 10 12 12
  stencil order = 5
  estimated absolute RMS force accuracy = 0.0231877
  estimated relative force accuracy = 6.98291e-05
  3d grid and FFT values/proc = 2873 360
  update every 1 steps, delay 10 steps, check yes
Step Temp PotEng TotEng E_pair E_vdwl E_coul E_bond E_angle E_long E_tail Press Lx Ly Lz Volume
0          300   -1578.4443   -1407.6439   -1578.4443    404.79745    10496.467            0            0   -12479.709    -8.685473    5809.9236        13.47      15.5616    14.671634    3075.3909
Averages over the last 501 of 1001 rows, steps 250000 to 500000:
Temp PotEng TotEng E_pair E_vdwl E_coul E_bond E_angle E_long E_tail Press Lx Ly Lz Volume
299.947 -1378.44 -1207.67 -1378.44 309.229 10788.8 0 0 -12476.5 -8.4016 -30.4271 13.287 16.2056 14.7697 3179.65
Loop time of 335.286 on 4 procs for 500000 steps with 288 atoms

unfix		1
unfix		2
unfix		3

write_data	data.final
PPPM initialization ...
  extracting TIP4P info from pair style
  G vector (1/distance) = 0.332967
  grid = 10 12 12
  stencil order = 5
  estimated absolute RMS force accuracy = 0.0226762
  estimated relative force accuracy = 6.82888e-05
  3d grid and FFT values/proc = 2873 360
