LAMMPS (19 Sep 2019)
echo both

include		in.temp
variable	temperature equal 270.0
variable	temperature2 equal 400.0

variable	tempDamp equal 100.0
include		in.pressure
variable        pressure equal 1.
variable        pressureDamp equal 1000.0 # This is 1 ps
include		in.seed
variable	seed equal 745821
units		real
atom_style	full
include		in.box
read_data       ice.data
  orthogonal box = (0 0 0) to (17.7165 24.2429 22.1364)
  reading atoms ...
  864 atoms
  reading velocities ...
  864 velocities
  scanning bonds ...
  scanning angles ...
  reading bonds ...
  576 bonds
  reading angles ...
  288 angles
include 	in.setup
variable	out_freq equal 500
variable	out_freq2 equal 500

timestep	2.0

neigh_modify    delay 10 every 1

include		in.tip4p
# This is TIP4P/Ice

# create groups ###
group ox type 2
288 atoms in group ox
group hy type 1
576 atoms in group hy

# set charges - beside manually ###
set group ox charge -1.1794
  288 settings made for charge
set group hy charge 0.5897
  576 settings made for charge

# ### TIP3P Potential Parameters ###
pair_style lj/cut/tip4p/long 2 1 1 1 0.1577 8.5
pair_coeff 1 1*2 0.000 0.000
pair_coeff 2 2 0.21084 3.1668
bond_style  harmonic
bond_coeff  1 450 0.9572
angle_style harmonic
angle_coeff 1 55 104.52
kspace_style pppm/tip4p 1.0e-4 #final npt relaxation
pair_modify tail yes

thermo          500
thermo_style 	custom step temp pe etotal epair evdwl ecoul ebond eangle elong etail press lx ly lz vol

restart 	500 restart.lmp restart2.lmp

fix 		1 all shake 1e-6 200 0 b 1 a 1
  find clusters CPU = 0.000969145 secs
fix             2 all nph iso 1 1 1000
fix             3 all temp/csvr 400 400 100 745821
velocity 	all create 400 745821 dist gaussian

run             200000
PPPM initialization ...
  extracting TIP4P info from pair style
  G vector (1/distance) = 0.331927
  grid = 15 18 16
  stencil order = 5
  estimated absolute RMS force accuracy = 0.0235776
  estimated relative force accuracy = 7.10033e-05
  3d grid and FFT values/proc = 3360 576
  update every 1 steps, delay 10 steps, check yes
Step Temp PotEng TotEng E_pair E_vdwl E_coul E_bond E_angle E_long E_tail Press Lx Ly Lz Volume
0          400   -4196.7649   -3511.1785   -4196.7649    1020.1868    32139.219            0            0   -37356.171   -25.285247    2301.8369    17.716453    24.242907    22.136433    9507.5607
Averages over the last 201 of 401 rows, steps 100000 to 200000:
Temp PotEng TotEng E_pair E_vdwl E_coul E_bond E_angle E_long E_tail Press Lx Ly Lz Volume
399.052 -3286.85 -2602.89 -3286.85 476.077 33574.9 0 0 -37337.8 -26.5519 -36.2768 17.4313 23.8526 21.7801 9056.63
Loop time of 364.133 on 8 procs for 200000 steps with 864 atoms

unfix		1
unfix		2
unfix		3

fix 		1 all shake 1e-6 200 0 b 1 a 1
  find clusters CPU = 0.00952294 secs
fix             2 all nph iso 1 1 1000
fix             3 all temp/csvr 400 270 100 745821

run             100000
PPPM initialization ...
  extracting TIP4P info from pair style
  G vector (1/distance) = 0.333223
  grid = 15 18 16
  stencil order = 5
  estimated absolute RMS force accuracy = 0.0226148
  estimated relative force accuracy = 6.81037e-05
  3d grid and FFT values/proc = 3360 576
Step Temp PotEng TotEng E_pair E_vdwl E_coul E_bond E_angle E_long E_tail Press Lx Ly Lz Volume
200000    392.60608   -3245.9336   -2573.0202   -3245.9336    426.08928    33808.127            0            0    -37480.15   -26.347854   -1187.2266     17.47501     23.91252    21.834753    9124.1215
Averages over the last 101 of 201 rows, steps 250000 to 300000:
Temp PotEng TotEng E_pair E_vdwl E_coul E_bond E_angle E_long E_tail Press Lx Ly Lz Volume
300.608 -3686.17 -3170.94 -3686.17 628.461 33178 0 0 -37492.7 -27.75 -93.9104 17.1763 23.5038 21.4615 8664.78
Loop time of 171.561 on 8 procs for 100000 steps with 864 atoms

unfix		1
unfix		2
unfix		3

include 	in.dump
dump            myDump all atom 500 dump.water
dump            myDump2 all dcd 500 dump.dcd

fix 		1 all shake 1e-6 200 0 b 1 a 1
  find clusters CPU = 0.000263824 secs
fix             2 all nph iso 1 1 1000
fix             3 all temp/csvr 270 270 100 745821

run             500000
PPPM initialization ...
  extracting TIP4P info from pair style
  G vector (1/distance) = 0.334369
  grid = 15 18 16
  stencil order = 5
  estimated absolute RMS force accuracy = 0.0217934
  estimated relative force accuracy = 6.56301e-05
  3d grid and FFT values/proc = 3600 576
Step Temp PotEng TotEng E_pair E_vdwl E_coul E_bond E_angle E_long E_tail Press Lx Ly Lz Volume
300000    279.52339   -3831.4568   -3352.3633   -3831.4568    638.14834    33155.631            0            0   -37625.236   -27.328086    -1998.722    17.263523    23.623125    21.570504     8796.848
Averages over the last 501 of 1001 rows, steps 550000 to 800000:
Temp PotEng TotEng E_pair E_vdwl E_coul E_bond E_angle E_long E_tail Press Lx Ly Lz Volume
269.808 -3850.83 -3388.39 -3850.83 719.854 33053.5 0 0 -37624.2 -27.562 -10.9567 17.2153 23.5572 21.5103 8723.93
Loop time of 855.911 on 8 procs for 500000 steps with 864 atoms

unfix		1
unfix		2
unfix		3

write_data	data.final
PPPM initialization ...
  extracting TIP4P info from pair style
  G vector (1/distance) = 0.327655
  grid = 15 16 15
  stencil order = 5
  estimated absolute RMS force accuracy = 0.0304753
  estimated relative force accuracy = 9.17754e-05
  3d grid and FFT values/proc = 3150 512
