LAMMPS (19 Sep 2019)
echo both

include		in.temp
variable	temperature equal 300.0

variable	tempDamp equal 100.0
include		in.pressure
variable        pressure equal 1.
variable        pressureDamp equal 1000.0 # This is 1 ps
include		in.seed
variable	seed equal 745821
units		real
atom_style	full
include		in.box
read_data       water.data
  orthogonal box = (0.418551 0.418551 0.418551) to (14.5662 14.5662 14.5662)
  reading atoms ...
  288 atoms
  reading velocities ...
  288 velocities
  scanning bonds ...
  scanning angles ...
  reading bonds ...
  192 bonds
  reading angles ...
  96 angles
include 	in.setup
variable	out_freq equal 500
variable	out_freq2 equal 500

timestep	2.0

neigh_modify    delay 10 every 1

include		in.tip4p
# This is TIP4P/Ice

# create groups ###
group ox type 2
96 atoms in group ox
group hy type 1
192 atoms in group hy

# set charges - beside manually ###
set group ox charge -1.1794
  96 settings made for charge
set group hy charge 0.5897
  192 settings made for charge

# ### TIP3P Potential Parameters ###
pair_style lj/cut/tip4p/long 2 1 1 1 0.1577 8.5
pair_coeff 1 1*2 0.000 0.000
pair_coeff 2 2 0.21084 3.1668
bond_style  harmonic
bond_coeff  1 450 0.9572
angle_style harmonic
angle_coeff 1 55 104.52
kspace_style pppm/tip4p 1.0e-4 #final npt relaxation
pair_modify tail yes

thermo          500
thermo_style 	custom step temp pe etotal epair evdwl ecoul ebond eangle elong etail press lx ly lz vol

restart 	500 restart.lmp restart2.lmp

include 	in.dump
dump            myDump all atom 500 dump.water
dump            myDump2 all dcd 500 water.dcd
#dump_modify     myDump append yes

fix 		1 all shake 1e-6 200 0 b 1 a 1
  find clusters CPU = 0.000733466 secs
fix             2 all nph iso 1 1 1000
fix             3 all temp/csvr 300 300 100 745821

run             200000
PPPM initialization ...
  extracting TIP4P info from pair style
  G vector (1/distance) = 0.342162
  grid = 12 12 12
  stencil order = 5
  estimated absolute RMS force accuracy = 0.0151465
  estimated relative force accuracy = 4.56133e-05
  3d grid and FFT values/proc = 2197 288
  update every 1 steps, delay 10 steps, check yes
Step Temp PotEng TotEng E_pair E_vdwl E_coul E_bond E_angle E_long E_tail Press Lx Ly Lz Volume
0    272.18548   -1229.6882   -1074.7236   -1229.6882    185.54817    11417.631            0            0   -12832.868   -9.4327081     -1917.29    14.147699    14.147699    14.147699    2831.7663
Averages over the last 201 of 401 rows, steps 100000 to 200000:
Temp PotEng TotEng E_pair E_vdwl E_coul E_bond E_angle E_long E_tail Press Lx Ly Lz Volume
300.849 -1239.21 -1067.93 -1239.21 218.53 11374.8 0 0 -12832.5 -9.23295 137.304 14.2514 14.2514 14.2514 2895.22
Loop time of 577.593 on 8 procs for 200000 steps with 288 atoms

unfix		1
unfix		2
unfix		3

write_data	data.final
PPPM initialization ...
  extracting TIP4P info from pair style
  G vector (1/distance) = 0.340884
  grid = 12 12 12
  stencil order = 5
  estimated absolute RMS force accuracy = 0.0157988
  estimated relative force accuracy = 4.75775e-05
  3d grid and FFT values/proc = 2197 288
